_6
  -OEChem-12072117513D

 49 52  0     1  0  0  0  0  0999 V2000
   90.8412  108.0969   84.8047 C   0  0  0  0  0  0  0  0  0  0  0  0
   89.9447  109.1312   84.5362 C   0  0  0  0  0  0  0  0  0  0  0  0
   83.9404  112.5637   86.0193 C   0  0  0  0  0  0  0  0  0  0  0  0
   90.3671  106.8058   85.0370 C   0  0  0  0  0  0  0  0  0  0  0  0
   83.1697  112.9494   87.1163 C   0  0  0  0  0  0  0  0  0  0  0  0
   88.1001  107.5834   84.7323 C   0  0  0  0  0  0  0  0  0  0  0  0
   85.0117  112.4435   88.5949 C   0  0  0  0  0  0  0  0  0  0  0  0
   88.5742  108.8745   84.5000 C   0  0  0  0  0  0  0  0  0  0  0  0
   85.2507  112.1044   86.2032 C   0  0  0  0  0  0  0  0  0  0  0  0
   85.7836  112.0403   87.5003 C   0  0  0  0  0  0  0  0  0  0  0  0
   88.9966  106.5490   85.0008 C   0  0  0  0  0  0  0  0  0  0  0  0
   83.7053  112.8912   88.4017 C   0  0  0  0  0  0  0  0  0  0  0  0
   87.2311  103.5571   85.0932 C   0  0  0  0  0  0  0  0  0  0  0  0
   89.1803  104.3432   86.0608 C   0  0  0  0  0  0  0  0  0  0  0  0
   87.6307  109.9653   84.2168 C   0  0  0  0  0  0  0  0  0  0  0  0
   86.8667  112.9375   84.5320 C   0  0  0  0  0  0  0  0  0  0  0  0
   87.1993  111.5708   87.6687 C   0  0  0  0  0  0  0  0  0  0  0  0
   88.3214  103.1127   86.0099 C   0  0  0  0  0  0  0  0  0  0  0  0
   87.4993  110.4291   86.7013 C   0  0  0  0  0  0  0  0  0  0  0  0
   86.1126  111.7357   85.0232 C   0  0  1  0  0  0  0  0  0  0  0  0
   86.1016  102.6634   84.7190 C   0  0  0  0  0  0  0  0  0  0  0  0
   87.3691  104.7722   84.6683 N   0  0  0  0  0  0  0  0  0  0  0  0
   88.5226  105.2574   85.2329 N   0  0  0  0  0  0  0  0  0  0  0  0
   87.1268  110.7045   85.3012 N   0  0  0  0  0  0  0  0  0  0  0  0
   86.0585  113.9874   84.1650 N   0  0  0  0  0  0  0  0  0  0  0  0
   90.2132  104.4735   86.6955 O   0  0  0  0  0  0  0  0  0  0  0  0
   87.3525  110.1540   83.0333 O   0  0  0  0  0  0  0  0  0  0  0  0
   88.0942  112.9644   84.4869 O   0  0  0  0  0  0  0  0  0  0  0  0
   82.9495  113.2658   89.4702 O   0  0  0  0  0  0  0  0  0  0  0  0
   91.9023  108.2957   84.8328 H   0  0  0  0  0  0  0  0  0  0  0  0
   90.3118  110.1309   84.3562 H   0  0  0  0  0  0  0  0  0  0  0  0
   83.5249  112.6194   85.0240 H   0  0  0  0  0  0  0  0  0  0  0  0
   91.0612  106.0049   85.2448 H   0  0  0  0  0  0  0  0  0  0  0  0
   82.1567  113.2937   86.9692 H   0  0  0  0  0  0  0  0  0  0  0  0
   87.0389  107.3846   84.7043 H   0  0  0  0  0  0  0  0  0  0  0  0
   85.4281  112.4081   89.5908 H   0  0  0  0  0  0  0  0  0  0  0  0
   87.8850  112.4069   87.4666 H   0  0  0  0  0  0  0  0  0  0  0  0
   87.3443  111.2190   88.7008 H   0  0  0  0  0  0  0  0  0  0  0  0
   87.9305  102.8527   87.0047 H   0  0  0  0  0  0  0  0  0  0  0  0
   88.8710  102.2544   85.5961 H   0  0  0  0  0  0  0  0  0  0  0  0
   88.5793  110.2233   86.7360 H   0  0  0  0  0  0  0  0  0  0  0  0
   86.9456  109.5396   87.0362 H   0  0  0  0  0  0  0  0  0  0  0  0
   85.4583  111.3806   84.2134 H   0  0  0  0  0  0  0  0  0  0  0  0
   85.4217  103.1964   84.0381 H   0  0  0  0  0  0  0  0  0  0  0  0
   86.4944  101.7668   84.2172 H   0  0  0  0  0  0  0  0  0  0  0  0
   85.5538  102.3660   85.6254 H   0  0  0  0  0  0  0  0  0  0  0  0
   86.4648  114.8401   83.8366 H   0  0  0  0  0  0  0  0  0  0  0  0
   85.0644  113.8984   84.2266 H   0  0  0  0  0  0  0  0  0  0  0  0
   83.4568  113.1680   90.2674 H   0  0  0  0  0  0  0  0  0  0  0  0
  1  2  1  0  0  0  0
  1  4  2  0  0  0  0
  2  8  2  0  0  0  0
  3  5  2  0  0  0  0
  3  9  1  0  0  0  0
  4 11  1  0  0  0  0
  5 12  1  0  0  0  0
  6  8  1  0  0  0  0
  6 11  2  0  0  0  0
  7 10  1  0  0  0  0
  7 12  2  0  0  0  0
  8 15  1  0  0  0  0
  9 10  2  0  0  0  0
  9 20  1  0  0  0  0
 10 17  1  0  0  0  0
 11 23  1  0  0  0  0
 12 29  1  0  0  0  0
 13 18  1  0  0  0  0
 13 21  1  0  0  0  0
 13 22  2  0  0  0  0
 14 18  1  0  0  0  0
 14 23  1  0  0  0  0
 14 26  2  0  0  0  0
 15 24  1  0  0  0  0
 15 27  2  0  0  0  0
 16 20  1  0  0  0  0
 16 25  1  0  0  0  0
 16 28  2  0  0  0  0
 17 19  1  0  0  0  0
 19 24  1  0  0  0  0
 20 24  1  0  0  0  0
 22 23  1  0  0  0  0
  1 30  1  0  0  0  0
  2 31  1  0  0  0  0
  3 32  1  0  0  0  0
  4 33  1  0  0  0  0
  5 34  1  0  0  0  0
  6 35  1  0  0  0  0
  7 36  1  0  0  0  0
 17 37  1  0  0  0  0
 17 38  1  0  0  0  0
 18 39  1  0  0  0  0
 18 40  1  0  0  0  0
 19 41  1  0  0  0  0
 19 42  1  0  0  0  0
 20 43  1  0  0  0  0
 21 44  1  0  0  0  0
 21 45  1  0  0  0  0
 21 46  1  0  0  0  0
 25 47  1  0  0  0  0
 25 48  1  0  0  0  0
 29 49  1  0  0  0  0
M  END
> <RefConfIdx>
0.000000

> <FitConfIdx>
6.000000

> <RefSelfOverlap>
1250.313599

> <FitSelfOverlap>
1346.825562

> <Overlap>
974.598389

> <ShapeTanimoto>
0.600662

> <RefSelfColor>
-11.011600

> <FitSelfColor>
-11.004833

> <ColorScore>
-3.165857

> <ColorTanimoto>
0.167945

$$$$
